12
title
C -1.6131970631921564 0.700296810390002 0.16947961998188676 
O -2.7881711005264433 0.5589701952912859 0.49616731016940707 
C -0.7001983730114307 -0.45566207633428607 -0.12466055092417763 
C 0.44449942509133733 -0.4587702676018113 0.871524016928123 
O 1.2899425224472698 0.678262223906144 0.6749010730734546 
O 2.0943752399544286 0.38667009990282253 -0.5027449690260538 
H -1.171991229381314 1.706262130299055 0.06122857354119585 
H -1.273584379234412 -1.384903015150339 -0.0474857424198277 
H -0.3473352697517865 -0.34458705415607566 -1.1544069190397708 
H 1.0401592654797833 -1.374222389739856 0.7807464943884914 
H 0.06695733614151535 -0.4085856747849893 1.8984132677412755 
H 2.9585436259831575 0.3962690179780469 -0.05082715929557651 
